
  -OEChem-03232113093D

 12 12  0     0  0  0  0  0  0999 V2000
    1.8851   -1.0363   -0.1124 C   0  0  0  0  0  0  0  0  0  0  0  0
    2.9210   -1.6309    0.6081 C   0  0  0  0  0  0  0  0  0  0  0  0
    2.8783   -1.6520    2.0022 C   0  0  0  0  0  0  0  0  0  0  0  0
    1.7997   -1.0786    2.6757 C   0  0  0  0  0  0  0  0  0  0  0  0
    0.7638   -0.4841    1.9551 C   0  0  0  0  0  0  0  0  0  0  0  0
    0.8066   -0.4630    0.5610 C   0  0  0  0  0  0  0  0  0  0  0  0
    1.9174   -1.0203   -1.1978 H   0  0  0  0  0  0  0  0  0  0  0  0
    3.7613   -2.0769    0.0841 H   0  0  0  0  0  0  0  0  0  0  0  0
    3.6848   -2.1150    2.5631 H   0  0  0  0  0  0  0  0  0  0  0  0
    1.7665   -1.0955    3.7614 H   0  0  0  0  0  0  0  0  0  0  0  0
   -0.0760   -0.0377    2.4791 H   0  0  0  0  0  0  0  0  0  0  0  0
    0.0004    0.0003   -0.0003 H   0  0  0  0  0  0  0  0  0  0  0  0
  1  6  2  0  0  0  0
  1  2  1  0  0  0  0
  2  3  2  0  0  0  0
  3  4  1  0  0  0  0
  4  5  2  0  0  0  0
  5  6  1  0  0  0  0
  1  7  1  0  0  0  0
  2  8  1  0  0  0  0
  3  9  1  0  0  0  0
  4 10  1  0  0  0  0
  5 11  1  0  0  0  0
  6 12  1  0  0  0  0
M  END
$$$$
