cyclohexane
     RDKit          3D

 18 18  0  0  0  0  0  0  0  0999 V2000
    1.1806    0.8858   -0.0928 C   0  0  0  0  0  0  0  0  0  0  0  0
   -0.2300    1.4129   -0.3715 C   0  0  0  0  0  0  0  0  0  0  0  0
   -1.2876    0.6119    0.3933 C   0  0  0  0  0  0  0  0  0  0  0  0
   -1.1806   -0.8858    0.0928 C   0  0  0  0  0  0  0  0  0  0  0  0
    0.2300   -1.4129    0.3715 C   0  0  0  0  0  0  0  0  0  0  0  0
    1.2876   -0.6120   -0.3933 C   0  0  0  0  0  0  0  0  0  0  0  0
    1.9181    1.4449   -0.6813 H   0  0  0  0  0  0  0  0  0  0  0  0
    1.4276    1.0596    0.9646 H   0  0  0  0  0  0  0  0  0  0  0  0
   -0.2966    2.4760   -0.1107 H   0  0  0  0  0  0  0  0  0  0  0  0
   -0.4344    1.3420   -1.4496 H   0  0  0  0  0  0  0  0  0  0  0  0
   -2.2920    0.9777    0.1478 H   0  0  0  0  0  0  0  0  0  0  0  0
   -1.1510    0.7734    1.4723 H   0  0  0  0  0  0  0  0  0  0  0  0
   -1.4276   -1.0596   -0.9646 H   0  0  0  0  0  0  0  0  0  0  0  0
   -1.9181   -1.4449    0.6813 H   0  0  0  0  0  0  0  0  0  0  0  0
    0.2966   -2.4760    0.1107 H   0  0  0  0  0  0  0  0  0  0  0  0
    0.4344   -1.3420    1.4496 H   0  0  0  0  0  0  0  0  0  0  0  0
    1.1510   -0.7734   -1.4723 H   0  0  0  0  0  0  0  0  0  0  0  0
    2.2920   -0.9777   -0.1478 H   0  0  0  0  0  0  0  0  0  0  0  0
  1  2  1  0
  2  3  1  0
  3  4  1  0
  4  5  1  0
  5  6  1  0
  6  1  1  0
  1  7  1  0
  1  8  1  0
  2  9  1  0
  2 10  1  0
  3 11  1  0
  3 12  1  0
  4 13  1  0
  4 14  1  0
  5 15  1  0
  5 16  1  0
  6 17  1  0
  6 18  1  0
M  END
